
  Mrv17d0 10011814043D          

280279  0  0  0  0            999 V2000
  -22.7539  -21.6131   16.1854 C   0  0  0  0  0  0  0  0  0  0  0  0
  -22.1560  -20.3540   16.0089 C   0  0  0  0  0  0  0  0  0  0  0  0
  -21.6011  -19.9986   14.7636 C   0  0  0  0  0  0  0  0  0  0  0  0
  -21.5772  -20.9422   13.7134 C   0  0  0  0  0  0  0  0  0  0  0  0
  -22.1795  -22.2042   13.9017 C   0  0  0  0  0  0  0  0  0  0  0  0
  -22.7875  -22.5591   15.1325 C   0  0  0  0  0  0  0  0  0  0  0  0
  -14.9459  -20.8239  -11.9280 C   0  0  0  0  0  0  0  0  0  0  0  0
  -14.4121  -20.2851  -13.1797 C   0  0  1  0  0  0  0  0  0  0  0  0
  -15.0637  -20.9507  -14.4450 C   0  0  1  0  0  0  0  0  0  0  0  0
  -15.4137  -22.3521  -14.2172 C   0  0  0  0  0  0  0  0  0  0  0  0
  -15.6271  -22.8703  -12.9863 C   0  0  0  0  0  0  0  0  0  0  0  0
  -15.5062  -22.0491  -11.8872 C   0  0  0  0  0  0  0  0  0  0  0  0
   30.9077  -14.7263    0.0000 Na  0  3  0  0  0  0  0  0  0  0  0  0
  -20.4626   31.5481    0.0000 Na  0  3  0  0  0  0  0  0  0  0  0  0
  -22.1279  -19.4709   17.0476 O   0  0  0  0  0  0  0  0  0  0  0  0
  -21.0522  -18.7556   14.5966 O   0  0  0  0  0  0  0  0  0  0  0  0
  -20.9778  -20.6296   12.5164 O   0  0  0  0  0  0  0  0  0  0  0  0
  -14.8473  -20.1166  -10.7839 O   0  0  0  0  0  0  0  0  0  0  0  0
  -14.5713  -18.8460  -13.1642 O   0  0  0  0  0  0  0  0  0  0  0  0
  -16.2425  -20.2018  -14.8200 O   0  0  0  0  0  0  0  0  0  0  0  0
  -20.9323  -19.5814   17.8471 C   0  0  1  0  0  0  0  0  0  0  0  0
  -20.9373  -18.4533   18.9009 C   0  0  2  0  0  0  0  0  0  0  0  0
  -20.9393  -17.0365   18.2642 C   0  0  2  0  0  0  0  0  0  0  0  0
  -20.8943  -15.9134   19.3320 C   0  0  1  0  0  0  0  0  0  0  0  0
  -20.9006  -14.4965   18.7020 C   0  0  2  0  0  0  0  0  0  0  0  0
  -20.8975  -13.3660   19.7663 C   0  0  2  0  0  0  0  0  0  0  0  0
  -20.8853  -11.9573   19.1165 C   0  0  2  0  0  0  0  0  0  0  0  0
  -20.8939  -10.8038   20.1546 C   0  0  1  0  0  0  0  0  0  0  0  0
  -20.8360   -9.4094   19.4766 C   0  0  1  0  0  0  0  0  0  0  0  0
  -21.0147   -8.2335   20.4733 C   0  0  1  0  0  0  0  0  0  0  0  0
  -20.7821   -6.8492   19.8087 C   0  0  1  0  0  0  0  0  0  0  0  0
  -21.9751  -17.7882   14.0529 C   0  0  1  0  0  0  0  0  0  0  0  0
  -21.2516  -16.4327   13.8752 C   0  0  1  0  0  0  0  0  0  0  0  0
  -20.0979  -16.5129   12.8374 C   0  0  2  0  0  0  0  0  0  0  0  0
  -19.4246  -15.1391   12.5766 C   0  0  2  0  0  0  0  0  0  0  0  0
  -18.2543  -15.2402   11.5625 C   0  0  2  0  0  0  0  0  0  0  0  0
  -17.5418  -13.8844   11.3029 C   0  0  1  0  0  0  0  0  0  0  0  0
  -16.3445  -14.0524   10.3299 C   0  0  2  0  0  0  0  0  0  0  0  0
  -15.5501  -12.7499   10.0482 C   0  0  2  0  0  0  0  0  0  0  0  0
  -14.3840  -12.9890    9.0517 C   0  0  1  0  0  0  0  0  0  0  0  0
  -13.5758  -11.6750    8.7204 C   0  0  2  0  0  0  0  0  0  0  0  0
  -12.4335  -11.7044    7.6434 C   0  0  1  0  0  0  0  0  0  0  0  0
  -19.5624  -20.9258   12.5163 C   0  0  2  0  0  0  0  0  0  0  0  0
  -18.9044  -20.5213   11.1712 C   0  0  1  0  0  0  0  0  0  0  0  0
  -17.3745  -20.8030   11.1665 C   0  0  1  0  0  0  0  0  0  0  0  0
  -16.6660  -20.4702    9.8237 C   0  0  2  0  0  0  0  0  0  0  0  0
  -15.1583  -20.8463    9.8620 C   0  0  1  0  0  0  0  0  0  0  0  0
  -14.4028  -20.6037    8.5261 C   0  0  2  0  0  0  0  0  0  0  0  0
  -12.9277  -21.1000    8.5938 C   0  0  2  0  0  0  0  0  0  0  0  0
  -12.1347  -20.8518    7.2829 C   0  0  1  0  0  0  0  0  0  0  0  0
  -10.7029  -21.4618    7.2773 C   0  0  1  0  0  0  0  0  0  0  0  0
   -9.8992  -21.0309    6.0171 C   0  0  1  0  0  0  0  0  0  0  0  0
   -8.5210  -21.7313    5.8424 C   0  0  1  0  0  0  0  0  0  0  0  0
  -13.6173  -20.3658  -10.0673 C   0  0  2  0  0  0  0  0  0  0  0  0
  -13.6167  -19.6089   -8.7156 C   0  0  2  0  0  0  0  0  0  0  0  0
  -12.3175  -19.8749   -7.9055 C   0  0  2  0  0  0  0  0  0  0  0  0
  -12.2549  -19.1569   -6.5263 C   0  0  1  0  0  0  0  0  0  0  0  0
  -10.9459  -19.5101   -5.7631 C   0  0  2  0  0  0  0  0  0  0  0  0
  -10.7696  -18.8119   -4.3840 C   0  0  2  0  0  0  0  0  0  0  0  0
   -9.4313  -19.2319   -3.7069 C   0  0  2  0  0  0  0  0  0  0  0  0
   -9.1451  -18.5308   -2.3520 C   0  0  1  0  0  0  0  0  0  0  0  0
   -7.7887  -18.9669   -1.7258 C   0  0  1  0  0  0  0  0  0  0  0  0
   -7.4994  -18.2453   -0.3822 C   0  0  1  0  0  0  0  0  0  0  0  0
   -6.1792  -18.6869    0.2922 C   0  0  1  0  0  0  0  0  0  0  0  0
  -13.7984  -18.1150  -14.1357 C   0  0  2  0  0  0  0  0  0  0  0  0
  -14.0800  -16.6051  -13.9739 C   0  0  1  0  0  0  0  0  0  0  0  0
  -13.3563  -15.7596  -15.0532 C   0  0  2  0  0  0  0  0  0  0  0  0
  -13.6265  -14.2390  -14.9047 C   0  0  2  0  0  0  0  0  0  0  0  0
  -12.9876  -13.4240  -16.0586 C   0  0  2  0  0  0  0  0  0  0  0  0
  -13.1756  -11.8886  -15.9123 C   0  0  1  0  0  0  0  0  0  0  0  0
  -12.5270  -11.1345  -17.1033 C   0  0  2  0  0  0  0  0  0  0  0  0
  -12.6453   -9.5875  -17.0390 C   0  0  2  0  0  0  0  0  0  0  0  0
  -11.9186   -8.9254  -18.2427 C   0  0  1  0  0  0  0  0  0  0  0  0
  -12.1292   -7.3921  -18.3630 C   0  0  2  0  0  0  0  0  0  0  0  0
  -11.2744   -6.7615  -19.5008 C   0  0  1  0  0  0  0  0  0  0  0  0
  -16.7623  -20.4233  -16.1497 C   0  0  2  0  0  0  0  0  0  0  0  0
  -17.9555  -19.4716  -16.3912 C   0  0  2  0  0  0  0  0  0  0  0  0
  -17.5447  -17.9742  -16.3970 C   0  0  2  0  0  0  0  0  0  0  0  0
  -18.7503  -17.0448  -16.6899 C   0  0  1  0  0  0  0  0  0  0  0  0
  -18.3438  -15.5514  -16.7754 C   0  0  2  0  0  0  0  0  0  0  0  0
  -19.5549  -14.6261  -17.0724 C   0  0  2  0  0  0  0  0  0  0  0  0
  -19.1385  -13.1354  -17.1856 C   0  0  2  0  0  0  0  0  0  0  0  0
  -20.3258  -12.1862  -17.5049 C   0  0  1  0  0  0  0  0  0  0  0  0
  -19.8848  -10.6988  -17.5882 C   0  0  1  0  0  0  0  0  0  0  0  0
  -21.0080   -9.7426  -18.0779 C   0  0  1  0  0  0  0  0  0  0  0  0
  -20.6159   -8.2404  -17.9887 C   0  0  1  0  0  0  0  0  0  0  0  0
  -21.7106   -5.8715   20.3004 O   0  0  0  0  0  0  0  0  0  0  0  0
  -11.8637  -10.3526    7.4784 O   0  0  0  0  0  0  0  0  0  0  0  0
   -7.4162  -20.8112    5.8909 O   0  0  0  0  0  0  0  0  0  0  0  0
   -6.0777  -18.0370    1.5644 O   0  0  0  0  0  0  0  0  0  0  0  0
  -11.9946   -5.7387  -20.2104 O   0  0  0  0  0  0  0  0  0  0  0  0
  -21.1115   -7.4971  -19.1138 O   0  0  0  0  0  0  0  0  0  0  0  0
  -21.5716   -4.5110   20.2314 C   0  0  0  0  0  0  0  0  0  0  0  0
  -10.8818   -9.7954    6.6395 C   0  0  0  0  0  0  0  0  0  0  0  0
   -6.0985  -21.1346    5.6796 C   0  0  0  0  0  0  0  0  0  0  0  0
   -5.0338  -18.1904    2.4203 C   0  0  0  0  0  0  0  0  0  0  0  0
  -11.4511   -4.7396  -20.9774 C   0  0  0  0  0  0  0  0  0  0  0  0
  -21.2897   -6.1402  -19.1926 C   0  0  0  0  0  0  0  0  0  0  0  0
  -20.4981   -4.0048   19.8275 O   0  0  0  0  0  0  0  0  0  0  0  0
   -9.8506   -9.3547    7.1954 O   0  0  0  0  0  0  0  0  0  0  0  0
   -5.7820  -22.3048    5.3559 O   0  0  0  0  0  0  0  0  0  0  0  0
  -22.5844   -3.6628   20.6333 C   0  0  0  0  0  0  0  0  0  0  0  0
  -23.8557   -4.0445   20.8039 C   0  0  0  0  0  0  0  0  0  0  0  0
  -11.0321   -9.6526    5.2746 C   0  0  0  0  0  0  0  0  0  0  0  0
  -12.1583   -9.9229    4.6046 C   0  0  0  0  0  0  0  0  0  0  0  0
   -5.0282  -20.1118    5.8194 C   0  0  2  0  0  0  0  0  0  0  0  0
   -4.9396  -19.6042    7.2844 C   0  0  0  0  0  0  0  0  0  0  0  0
   -4.1655  -17.2886    2.4699 O   0  0  0  0  0  0  0  0  0  0  0  0
   -4.9707  -19.3432    3.3392 C   0  0  1  0  0  0  0  0  0  0  0  0
   -5.2298  -18.9347    4.8151 C   0  0  2  0  0  0  0  0  0  0  0  0
  -10.2090   -4.5718  -21.0070 O   0  0  0  0  0  0  0  0  0  0  0  0
  -12.2418   -3.8726  -21.7078 C   0  0  0  0  0  0  0  0  0  0  0  0
  -21.1600   -5.4227  -18.1728 O   0  0  0  0  0  0  0  0  0  0  0  0
  -21.6525   -5.5316  -20.3789 C   0  0  0  0  0  0  0  0  0  0  0  0
  -21.5546   -6.1202  -21.5769 C   0  0  0  0  0  0  0  0  0  0  0  0
  -13.5223   -4.1073  -22.0185 C   0  0  0  0  0  0  0  0  0  0  0  0
  -23.9333  -24.2233   16.5076 O   0  5  0  0  0  0  0  0  0  0  0  0
  -23.4122  -23.8207   15.3233 C   0  0  0  0  0  0  0  0  0  0  0  0
  -23.4180  -24.6730   14.4048 O   0  0  0  0  0  0  0  0  0  0  0  0
  -16.0697  -25.0737  -13.8828 O   0  5  0  0  0  0  0  0  0  0  0  0
  -15.9650  -24.2241  -12.8310 C   0  0  0  0  0  0  0  0  0  0  0  0
  -16.1673  -24.7509  -11.7120 O   0  0  0  0  0  0  0  0  0  0  0  0
  -23.1623  -21.8289   17.0974 H   0  0  0  0  0  0  0  0  0  0  0  0
  -22.1594  -22.8693   13.1248 H   0  0  0  0  0  0  0  0  0  0  0  0
  -13.3446  -20.5339  -13.1643 H   0  0  0  0  0  0  0  0  0  0  0  0
  -14.3216  -20.9039  -15.2502 H   0  0  0  0  0  0  0  0  0  0  0  0
  -15.5046  -22.9229  -15.0257 H   0  0  0  0  0  0  0  0  0  0  0  0
  -15.8341  -22.3641  -11.0024 H   0  0  0  0  0  0  0  0  0  0  0  0
  -20.9078  -20.5451   18.3668 H   0  0  0  0  0  0  0  0  0  0  0  0
  -20.0235  -19.4918   17.2401 H   0  0  0  0  0  0  0  0  0  0  0  0
  -20.0513  -18.5683   19.5324 H   0  0  0  0  0  0  0  0  0  0  0  0
  -21.8238  -18.5680   19.5322 H   0  0  0  0  0  0  0  0  0  0  0  0
  -21.8448  -16.9136   17.6620 H   0  0  0  0  0  0  0  0  0  0  0  0
  -20.0745  -16.9373   17.6012 H   0  0  0  0  0  0  0  0  0  0  0  0
  -21.7608  -16.0166   19.9915 H   0  0  0  0  0  0  0  0  0  0  0  0
  -19.9884  -16.0306   19.9336 H   0  0  0  0  0  0  0  0  0  0  0  0
  -21.7893  -14.3899   18.0728 H   0  0  0  0  0  0  0  0  0  0  0  0
  -20.0178  -14.3898   18.0647 H   0  0  0  0  0  0  0  0  0  0  0  0
  -20.0156  -13.4742   20.4045 H   0  0  0  0  0  0  0  0  0  0  0  0
  -21.7879  -13.4634   20.3944 H   0  0  0  0  0  0  0  0  0  0  0  0
  -21.7658  -11.8587   18.4752 H   0  0  0  0  0  0  0  0  0  0  0  0
  -19.9950  -11.8653   18.4878 H   0  0  0  0  0  0  0  0  0  0  0  0
  -21.8017  -10.8751   20.7590 H   0  0  0  0  0  0  0  0  0  0  0  0
  -20.0324  -10.9104   20.8194 H   0  0  0  0  0  0  0  0  0  0  0  0
  -19.8740   -9.3095   18.9660 H   0  0  0  0  0  0  0  0  0  0  0  0
  -21.6277   -9.3441   18.7241 H   0  0  0  0  0  0  0  0  0  0  0  0
  -22.0259   -8.2801   20.8880 H   0  0  0  0  0  0  0  0  0  0  0  0
  -20.3087   -8.3502   21.3018 H   0  0  0  0  0  0  0  0  0  0  0  0
  -19.7492   -6.5384   19.9941 H   0  0  0  0  0  0  0  0  0  0  0  0
  -20.9288   -6.9055   18.7267 H   0  0  0  0  0  0  0  0  0  0  0  0
  -22.3569  -18.1155   13.0792 H   0  0  0  0  0  0  0  0  0  0  0  0
  -22.8255  -17.6427   14.7280 H   0  0  0  0  0  0  0  0  0  0  0  0
  -21.9857  -15.6901   13.5486 H   0  0  0  0  0  0  0  0  0  0  0  0
  -20.8565  -16.1123   14.8447 H   0  0  0  0  0  0  0  0  0  0  0  0
  -20.4943  -16.8974   11.8923 H   0  0  0  0  0  0  0  0  0  0  0  0
  -19.3439  -17.2179   13.2013 H   0  0  0  0  0  0  0  0  0  0  0  0
  -19.0464  -14.7454   13.5243 H   0  0  0  0  0  0  0  0  0  0  0  0
  -20.1764  -14.4452   12.1893 H   0  0  0  0  0  0  0  0  0  0  0  0
  -18.6430  -15.6262   10.6157 H   0  0  0  0  0  0  0  0  0  0  0  0
  -17.5231  -15.9585   11.9437 H   0  0  0  0  0  0  0  0  0  0  0  0
  -18.2617  -13.1787   10.8813 H   0  0  0  0  0  0  0  0  0  0  0  0
  -17.1851  -13.4795   12.2527 H   0  0  0  0  0  0  0  0  0  0  0  0
  -16.7250  -14.4428    9.3831 H   0  0  0  0  0  0  0  0  0  0  0  0
  -15.6570  -14.7905   10.7492 H   0  0  0  0  0  0  0  0  0  0  0  0
  -15.1429  -12.3613   10.9847 H   0  0  0  0  0  0  0  0  0  0  0  0
  -16.2253  -11.9990    9.6318 H   0  0  0  0  0  0  0  0  0  0  0  0
  -13.6925  -13.7267    9.4677 H   0  0  0  0  0  0  0  0  0  0  0  0
  -14.7839  -13.3911    8.1176 H   0  0  0  0  0  0  0  0  0  0  0  0
  -13.1291  -11.3180    9.6506 H   0  0  0  0  0  0  0  0  0  0  0  0
  -14.2924  -10.9188    8.3934 H   0  0  0  0  0  0  0  0  0  0  0  0
  -11.6450  -12.3869    7.9593 H   0  0  0  0  0  0  0  0  0  0  0  0
  -12.8384  -12.0542    6.6952 H   0  0  0  0  0  0  0  0  0  0  0  0
  -19.4096  -22.0005   12.6672 H   0  0  0  0  0  0  0  0  0  0  0  0
  -19.0578  -20.3805   13.3227 H   0  0  0  0  0  0  0  0  0  0  0  0
  -19.3803  -21.0838   10.3627 H   0  0  0  0  0  0  0  0  0  0  0  0
  -19.0793  -19.4560   10.9951 H   0  0  0  0  0  0  0  0  0  0  0  0
  -16.9072  -20.2172   11.9638 H   0  0  0  0  0  0  0  0  0  0  0  0
  -17.2168  -21.8619   11.3916 H   0  0  0  0  0  0  0  0  0  0  0  0
  -16.7696  -19.4013    9.6197 H   0  0  0  0  0  0  0  0  0  0  0  0
  -17.1516  -21.0229    9.0154 H   0  0  0  0  0  0  0  0  0  0  0  0
  -14.6704  -20.2649   10.6491 H   0  0  0  0  0  0  0  0  0  0  0  0
  -15.0704  -21.9053   10.1201 H   0  0  0  0  0  0  0  0  0  0  0  0
  -14.4138  -19.5348    8.2926 H   0  0  0  0  0  0  0  0  0  0  0  0
  -14.9213  -21.1327    7.7205 H   0  0  0  0  0  0  0  0  0  0  0  0
  -12.9290  -22.1712    8.8132 H   0  0  0  0  0  0  0  0  0  0  0  0
  -12.4129  -20.5872    9.4112 H   0  0  0  0  0  0  0  0  0  0  0  0
  -12.6923  -21.2809    6.4469 H   0  0  0  0  0  0  0  0  0  0  0  0
  -12.0645  -19.7736    7.1224 H   0  0  0  0  0  0  0  0  0  0  0  0
  -10.1612  -21.1427    8.1707 H   0  0  0  0  0  0  0  0  0  0  0  0
  -10.7831  -22.5541    7.3006 H   0  0  0  0  0  0  0  0  0  0  0  0
  -10.5092  -21.2474    5.1327 H   0  0  0  0  0  0  0  0  0  0  0  0
   -9.7517  -19.9500    6.0499 H   0  0  0  0  0  0  0  0  0  0  0  0
   -8.3704  -22.4982    6.6060 H   0  0  0  0  0  0  0  0  0  0  0  0
   -8.5031  -22.2225    4.8665 H   0  0  0  0  0  0  0  0  0  0  0  0
  -12.7645  -20.0251  -10.6633 H   0  0  0  0  0  0  0  0  0  0  0  0
  -13.5024  -21.4372   -9.8641 H   0  0  0  0  0  0  0  0  0  0  0  0
  -14.4813  -19.9326   -8.1298 H   0  0  0  0  0  0  0  0  0  0  0  0
  -13.7171  -18.5382   -8.9110 H   0  0  0  0  0  0  0  0  0  0  0  0
  -11.4604  -19.5555   -8.5061 H   0  0  0  0  0  0  0  0  0  0  0  0
  -12.2291  -20.9528   -7.7423 H   0  0  0  0  0  0  0  0  0  0  0  0
  -12.3027  -18.0759   -6.6844 H   0  0  0  0  0  0  0  0  0  0  0  0
  -13.1167  -19.4556   -5.9228 H   0  0  0  0  0  0  0  0  0  0  0  0
  -10.0968  -19.2374   -6.3967 H   0  0  0  0  0  0  0  0  0  0  0  0
  -10.9167  -20.5930   -5.6081 H   0  0  0  0  0  0  0  0  0  0  0  0
  -11.6048  -19.0803   -3.7304 H   0  0  0  0  0  0  0  0  0  0  0  0
  -10.7816  -17.7274   -4.5258 H   0  0  0  0  0  0  0  0  0  0  0  0
   -8.6073  -19.0083   -4.3900 H   0  0  0  0  0  0  0  0  0  0  0  0
   -9.4494  -20.3126   -3.5402 H   0  0  0  0  0  0  0  0  0  0  0  0
   -9.1326  -17.4490   -2.5059 H   0  0  0  0  0  0  0  0  0  0  0  0
   -9.9525  -18.7657   -1.6535 H   0  0  0  0  0  0  0  0  0  0  0  0
   -7.8053  -20.0475   -1.5576 H   0  0  0  0  0  0  0  0  0  0  0  0
   -6.9787  -18.7483   -2.4273 H   0  0  0  0  0  0  0  0  0  0  0  0
   -7.4536  -17.1665   -0.5584 H   0  0  0  0  0  0  0  0  0  0  0  0
   -8.3227  -18.4443    0.3096 H   0  0  0  0  0  0  0  0  0  0  0  0
   -6.1790  -19.7715    0.4360 H   0  0  0  0  0  0  0  0  0  0  0  0
   -5.3259  -18.4091   -0.3340 H   0  0  0  0  0  0  0  0  0  0  0  0
  -14.0736  -18.4199  -15.1490 H   0  0  0  0  0  0  0  0  0  0  0  0
  -12.7308  -18.2964  -13.9817 H   0  0  0  0  0  0  0  0  0  0  0  0
  -15.1573  -16.4394  -14.0519 H   0  0  0  0  0  0  0  0  0  0  0  0
  -13.7570  -16.2850  -12.9790 H   0  0  0  0  0  0  0  0  0  0  0  0
  -13.6945  -16.0875  -16.0408 H   0  0  0  0  0  0  0  0  0  0  0  0
  -12.2783  -15.9378  -14.9848 H   0  0  0  0  0  0  0  0  0  0  0  0
  -13.2126  -13.8990  -13.9513 H   0  0  0  0  0  0  0  0  0  0  0  0
  -14.7066  -14.0611  -14.8982 H   0  0  0  0  0  0  0  0  0  0  0  0
  -13.4350  -13.7500  -17.0027 H   0  0  0  0  0  0  0  0  0  0  0  0
  -11.9166  -13.6446  -16.1003 H   0  0  0  0  0  0  0  0  0  0  0  0
  -14.2437  -11.6578  -15.8719 H   0  0  0  0  0  0  0  0  0  0  0  0
  -12.7162  -11.5547  -14.9773 H   0  0  0  0  0  0  0  0  0  0  0  0
  -13.0013  -11.4784  -18.0270 H   0  0  0  0  0  0  0  0  0  0  0  0
  -11.4674  -11.4037  -17.1466 H   0  0  0  0  0  0  0  0  0  0  0  0
  -12.2022   -9.2273  -16.1066 H   0  0  0  0  0  0  0  0  0  0  0  0
  -13.7011   -9.3059  -17.0473 H   0  0  0  0  0  0  0  0  0  0  0  0
  -10.8486   -9.1335  -18.1549 H   0  0  0  0  0  0  0  0  0  0  0  0
  -12.2767   -9.3873  -19.1675 H   0  0  0  0  0  0  0  0  0  0  0  0
  -11.8615   -6.9182  -17.4136 H   0  0  0  0  0  0  0  0  0  0  0  0
  -13.1897   -7.1983  -18.5465 H   0  0  0  0  0  0  0  0  0  0  0  0
  -10.3560   -6.3565  -19.0652 H   0  0  0  0  0  0  0  0  0  0  0  0
  -10.9887   -7.5174  -20.2385 H   0  0  0  0  0  0  0  0  0  0  0  0
  -17.1100  -21.4545  -16.2570 H   0  0  0  0  0  0  0  0  0  0  0  0
  -15.9962  -20.2375  -16.9079 H   0  0  0  0  0  0  0  0  0  0  0  0
  -18.7021  -19.6379  -15.6093 H   0  0  0  0  0  0  0  0  0  0  0  0
  -18.4132  -19.7224  -17.3526 H   0  0  0  0  0  0  0  0  0  0  0  0
  -16.7749  -17.8136  -17.1577 H   0  0  0  0  0  0  0  0  0  0  0  0
  -17.1217  -17.7083  -15.4236 H   0  0  0  0  0  0  0  0  0  0  0  0
  -19.2068  -17.3404  -17.6385 H   0  0  0  0  0  0  0  0  0  0  0  0
  -19.4954  -17.1709  -15.8990 H   0  0  0  0  0  0  0  0  0  0  0  0
  -17.5998  -15.4315  -17.5685 H   0  0  0  0  0  0  0  0  0  0  0  0
  -17.8844  -15.2524  -15.8286 H   0  0  0  0  0  0  0  0  0  0  0  0
  -20.2908  -14.7347  -16.2702 H   0  0  0  0  0  0  0  0  0  0  0  0
  -20.0221  -14.9398  -18.0110 H   0  0  0  0  0  0  0  0  0  0  0  0
  -18.3903  -13.0402  -17.9778 H   0  0  0  0  0  0  0  0  0  0  0  0
  -18.6770  -12.8270  -16.2433 H   0  0  0  0  0  0  0  0  0  0  0  0
  -20.7728  -12.4849  -18.4567 H   0  0  0  0  0  0  0  0  0  0  0  0
  -21.0865  -12.2878  -16.7261 H   0  0  0  0  0  0  0  0  0  0  0  0
  -19.5436  -10.3813  -16.5989 H   0  0  0  0  0  0  0  0  0  0  0  0
  -19.0406  -10.6176  -18.2793 H   0  0  0  0  0  0  0  0  0  0  0  0
  -21.2506   -9.9984  -19.1133 H   0  0  0  0  0  0  0  0  0  0  0  0
  -21.9071   -9.9053  -17.4752 H   0  0  0  0  0  0  0  0  0  0  0  0
  -20.9923   -7.8306  -17.0458 H   0  0  0  0  0  0  0  0  0  0  0  0
  -19.5302   -8.1233  -17.9977 H   0  0  0  0  0  0  0  0  0  0  0  0
  -22.3625   -2.7055   20.7954 H   0  0  0  0  0  0  0  0  0  0  0  0
  -24.1437   -4.9803   20.6430 H   0  0  0  0  0  0  0  0  0  0  0  0
  -24.5390   -3.3840   21.0882 H   0  0  0  0  0  0  0  0  0  0  0  0
  -10.2600   -9.3072    4.7526 H   0  0  0  0  0  0  0  0  0  0  0  0
  -12.9764  -10.2441    5.0599 H   0  0  0  0  0  0  0  0  0  0  0  0
  -12.1918   -9.7912    3.6236 H   0  0  0  0  0  0  0  0  0  0  0  0
   -4.0612  -20.5836    5.6038 H   0  0  0  0  0  0  0  0  0  0  0  0
   -4.1076  -18.9045    7.3906 H   0  0  0  0  0  0  0  0  0  0  0  0
   -5.8575  -19.0890    7.5717 H   0  0  0  0  0  0  0  0  0  0  0  0
   -4.7709  -20.4347    7.9754 H   0  0  0  0  0  0  0  0  0  0  0  0
   -5.7175  -20.0841    3.0392 H   0  0  0  0  0  0  0  0  0  0  0  0
   -3.9823  -19.8026    3.2475 H   0  0  0  0  0  0  0  0  0  0  0  0
   -4.5453  -18.1245    5.0784 H   0  0  0  0  0  0  0  0  0  0  0  0
   -6.2468  -18.5397    4.9105 H   0  0  0  0  0  0  0  0  0  0  0  0
  -11.8363   -3.0233  -22.0348 H   0  0  0  0  0  0  0  0  0  0  0  0
  -21.9899   -4.5943  -20.3499 H   0  0  0  0  0  0  0  0  0  0  0  0
  -21.2058   -7.0436  -21.6747 H   0  0  0  0  0  0  0  0  0  0  0  0
  -21.8188   -5.6290  -22.3968 H   0  0  0  0  0  0  0  0  0  0  0  0
  -13.9802   -4.9407  -21.7357 H   0  0  0  0  0  0  0  0  0  0  0  0
  -14.0363   -3.4432  -22.5478 H   0  0  0  0  0  0  0  0  0  0  0  0
  1  2  1  0  0  0  0
  2  3  2  0  0  0  0
  3  4  1  0  0  0  0
  4  5  2  0  0  0  0
  5  6  1  0  0  0  0
  1  6  2  0  0  0  0
  7  8  1  0  0  0  0
  8  9  1  0  0  0  0
  9 10  1  0  0  0  0
 10 11  2  0  0  0  0
 11 12  1  0  0  0  0
  7 12  2  0  0  0  0
 11121  1  0  0  0  0
  6118  1  0  0  0  0
  2 15  1  0  0  0  0
  3 16  1  0  0  0  0
  4 17  1  0  0  0  0
  7 18  1  0  0  0  0
  8 19  1  0  0  0  0
  9 20  1  0  0  0  0
 21 22  1  0  0  0  0
 22 23  1  0  0  0  0
 23 24  1  0  0  0  0
 24 25  1  0  0  0  0
 25 26  1  0  0  0  0
 26 27  1  0  0  0  0
 27 28  1  0  0  0  0
 28 29  1  0  0  0  0
 29 30  1  0  0  0  0
 30 31  1  0  0  0  0
 15 21  1  0  0  0  0
 32 33  1  0  0  0  0
 33 34  1  0  0  0  0
 34 35  1  0  0  0  0
 35 36  1  0  0  0  0
 36 37  1  0  0  0  0
 37 38  1  0  0  0  0
 38 39  1  0  0  0  0
 39 40  1  0  0  0  0
 40 41  1  0  0  0  0
 41 42  1  0  0  0  0
 16 32  1  0  0  0  0
 43 44  1  0  0  0  0
 44 45  1  0  0  0  0
 45 46  1  0  0  0  0
 46 47  1  0  0  0  0
 47 48  1  0  0  0  0
 48 49  1  0  0  0  0
 49 50  1  0  0  0  0
 50 51  1  0  0  0  0
 51 52  1  0  0  0  0
 52 53  1  0  0  0  0
 17 43  1  0  0  0  0
 54 55  1  0  0  0  0
 55 56  1  0  0  0  0
 56 57  1  0  0  0  0
 57 58  1  0  0  0  0
 58 59  1  0  0  0  0
 59 60  1  0  0  0  0
 60 61  1  0  0  0  0
 61 62  1  0  0  0  0
 62 63  1  0  0  0  0
 63 64  1  0  0  0  0
 18 54  1  0  0  0  0
 65 66  1  0  0  0  0
 66 67  1  0  0  0  0
 67 68  1  0  0  0  0
 68 69  1  0  0  0  0
 69 70  1  0  0  0  0
 70 71  1  0  0  0  0
 71 72  1  0  0  0  0
 72 73  1  0  0  0  0
 73 74  1  0  0  0  0
 74 75  1  0  0  0  0
 19 65  1  0  0  0  0
 76 77  1  0  0  0  0
 77 78  1  0  0  0  0
 78 79  1  0  0  0  0
 79 80  1  0  0  0  0
 80 81  1  0  0  0  0
 81 82  1  0  0  0  0
 82 83  1  0  0  0  0
 83 84  1  0  0  0  0
 84 85  1  0  0  0  0
 85 86  1  0  0  0  0
 20 76  1  0  0  0  0
 31 87  1  0  0  0  0
 42 88  1  0  0  0  0
 53 89  1  0  0  0  0
 64 90  1  0  0  0  0
 75 91  1  0  0  0  0
 86 92  1  0  0  0  0
 87 93  1  0  0  0  0
 88 94  1  0  0  0  0
 89 95  1  0  0  0  0
 90 96  1  0  0  0  0
 91 97  1  0  0  0  0
 92 98  1  0  0  0  0
 93 99  2  0  0  0  0
 94100  2  0  0  0  0
 95101  2  0  0  0  0
 93102  1  0  0  0  0
102103  2  0  0  0  0
 94104  1  0  0  0  0
104105  2  0  0  0  0
 95106  1  0  0  0  0
 96108  2  0  0  0  0
 96109  1  0  0  0  0
 97111  2  0  0  0  0
 97112  1  0  0  0  0
 98113  2  0  0  0  0
 98114  1  0  0  0  0
114115  2  0  0  0  0
112116  2  0  0  0  0
106110  1  0  0  0  0
106107  1  0  0  0  0
109110  1  0  0  0  0
  1123  1  0  0  0  0
  5124  1  0  0  0  0
  8125  1  0  0  0  0
  9126  1  0  0  0  0
 10127  1  0  0  0  0
 12128  1  0  0  0  0
 21129  1  0  0  0  0
 21130  1  0  0  0  0
 22131  1  0  0  0  0
 22132  1  0  0  0  0
 23133  1  0  0  0  0
 23134  1  0  0  0  0
 24135  1  0  0  0  0
 24136  1  0  0  0  0
 25137  1  0  0  0  0
 25138  1  0  0  0  0
 26139  1  0  0  0  0
 26140  1  0  0  0  0
 27141  1  0  0  0  0
 27142  1  0  0  0  0
 28143  1  0  0  0  0
 28144  1  0  0  0  0
 29145  1  0  0  0  0
 29146  1  0  0  0  0
 30147  1  0  0  0  0
 30148  1  0  0  0  0
 31149  1  0  0  0  0
 31150  1  0  0  0  0
 32151  1  0  0  0  0
 32152  1  0  0  0  0
 33153  1  0  0  0  0
 33154  1  0  0  0  0
 34155  1  0  0  0  0
 34156  1  0  0  0  0
 35157  1  0  0  0  0
 35158  1  0  0  0  0
 36159  1  0  0  0  0
 36160  1  0  0  0  0
 37161  1  0  0  0  0
 37162  1  0  0  0  0
 38163  1  0  0  0  0
 38164  1  0  0  0  0
 39165  1  0  0  0  0
 39166  1  0  0  0  0
 40167  1  0  0  0  0
 40168  1  0  0  0  0
 41169  1  0  0  0  0
 41170  1  0  0  0  0
 42171  1  0  0  0  0
 42172  1  0  0  0  0
 43173  1  0  0  0  0
 43174  1  0  0  0  0
 44175  1  0  0  0  0
 44176  1  0  0  0  0
 45177  1  0  0  0  0
 45178  1  0  0  0  0
 46179  1  0  0  0  0
 46180  1  0  0  0  0
 47181  1  0  0  0  0
 47182  1  0  0  0  0
 48183  1  0  0  0  0
 48184  1  0  0  0  0
 49185  1  0  0  0  0
 49186  1  0  0  0  0
 50187  1  0  0  0  0
 50188  1  0  0  0  0
 51189  1  0  0  0  0
 51190  1  0  0  0  0
 52191  1  0  0  0  0
 52192  1  0  0  0  0
 53193  1  0  0  0  0
 53194  1  0  0  0  0
 54195  1  0  0  0  0
 54196  1  0  0  0  0
 55197  1  0  0  0  0
 55198  1  0  0  0  0
 56199  1  0  0  0  0
 56200  1  0  0  0  0
 57201  1  0  0  0  0
 57202  1  0  0  0  0
 58203  1  0  0  0  0
 58204  1  0  0  0  0
 59205  1  0  0  0  0
 59206  1  0  0  0  0
 60207  1  0  0  0  0
 60208  1  0  0  0  0
 61209  1  0  0  0  0
 61210  1  0  0  0  0
 62211  1  0  0  0  0
 62212  1  0  0  0  0
 63213  1  0  0  0  0
 63214  1  0  0  0  0
 64215  1  0  0  0  0
 64216  1  0  0  0  0
 65217  1  0  0  0  0
 65218  1  0  0  0  0
 66219  1  0  0  0  0
 66220  1  0  0  0  0
 67221  1  0  0  0  0
 67222  1  0  0  0  0
 68223  1  0  0  0  0
 68224  1  0  0  0  0
 69225  1  0  0  0  0
 69226  1  0  0  0  0
 70227  1  0  0  0  0
 70228  1  0  0  0  0
 71229  1  0  0  0  0
 71230  1  0  0  0  0
 72231  1  0  0  0  0
 72232  1  0  0  0  0
 73233  1  0  0  0  0
 73234  1  0  0  0  0
 74235  1  0  0  0  0
 74236  1  0  0  0  0
 75237  1  0  0  0  0
 75238  1  0  0  0  0
 76239  1  0  0  0  0
 76240  1  0  0  0  0
 77241  1  0  0  0  0
 77242  1  0  0  0  0
 78243  1  0  0  0  0
 78244  1  0  0  0  0
 79245  1  0  0  0  0
 79246  1  0  0  0  0
 80247  1  0  0  0  0
 80248  1  0  0  0  0
 81249  1  0  0  0  0
 81250  1  0  0  0  0
 82251  1  0  0  0  0
 82252  1  0  0  0  0
 83253  1  0  0  0  0
 83254  1  0  0  0  0
 84255  1  0  0  0  0
 84256  1  0  0  0  0
 85257  1  0  0  0  0
 85258  1  0  0  0  0
 86259  1  0  0  0  0
 86260  1  0  0  0  0
102261  1  0  0  0  0
103262  1  0  0  0  0
103263  1  0  0  0  0
104264  1  0  0  0  0
105265  1  0  0  0  0
105266  1  0  0  0  0
106267  1  0  0  0  0
107268  1  0  0  0  0
107269  1  0  0  0  0
107270  1  0  0  0  0
109271  1  0  0  0  0
109272  1  0  0  0  0
110273  1  0  0  0  0
110274  1  0  0  0  0
112275  1  0  0  0  0
114276  1  0  0  0  0
115277  1  0  0  0  0
115278  1  0  0  0  0
116279  1  0  0  0  0
116280  1  0  0  0  0
120121  1  0  0  0  0
121122  2  0  0  0  0
117118  1  0  0  0  0
118119  2  0  0  0  0
M  CHG  4  13   1  14   1 117  -1 120  -1
M  STY  2   1 SUP   2 SUP
M  SAL   1  4  13 120 121 122
M  SBL   1  1  13
M  SMT   1 COONa
M  SAP   1  1 121  11  1
M  SAL   2  4  14 117 118 119
M  SBL   2  1  14
M  SMT   2 COONa
M  SAP   2  1 118   6  1
M  END
